7

He        -0.00000        0.00000       -0.38918
He        -0.00000        0.00000       -2.44940
He         1.24424        0.90399        0.56771
He         1.24424       -0.90399        0.56771
He        -0.47526        1.46269        0.56771
He        -0.47526       -1.46269        0.56771
He        -1.53796        0.00000        0.56771
