8

He         0.52436       -0.90821        0.75187
He         0.52436        0.90821        0.75187
He        -1.04871        0.00000        0.75187
He        -1.04871        0.00000       -0.75187
He         0.52436        0.90821       -0.75187
He         0.52436       -0.90821       -0.75187
He        -0.00000       -0.00000        2.23447
He        -0.00000       -0.00000       -2.23447
