8

He        -0.00000       -0.84718       -2.53002
He         0.00000        0.84718       -2.53002
He         0.00000        0.84724       -0.84099
He        -0.00000       -0.84724       -0.84099
He        -0.00000       -0.84724        0.84099
He         0.00000        0.84724        0.84099
He         0.00000        0.84718        2.53002
He        -0.00000       -0.84718        2.53002
