8

He         1.66977       -1.66977        0.00000
He         1.66873       -0.00000        0.00000
He         1.66977        1.66977        0.00000
He         0.00000        1.66873        0.00000
He        -1.66977        1.66977       -0.00000
He        -1.66873        0.00000       -0.00000
He        -1.66977       -1.66977       -0.00000
He        -0.00000       -1.66873       -0.00000
